STAAD SPACE
START JOB INFORMATION
ENGINEER DATE 14-Mar-24
END JOB INFORMATION
INPUT WIDTH 79
UNIT METER KN
JOINT COORDINATES
1 0 0 0; 2 0 0 4; 3 0 0 8; 4 0 0 12; 5 0 0 14.678; 6 0 0 17.374; 7 4 0 0;
8 4 0 4; 9 4 0 8; 10 8 0 12; 11 8 0 8; 12 8 0 4; 13 8 0 0; 14 41 0 12;
15 41 0 8; 16 41 0 4; 17 41 0 0; 18 45 0 8; 19 45 0 4; 20 45 0 0; 21 49 0 0;
22 49 0 4; 23 49 0 8; 24 49 0 12; 25 49 0 14.678; 26 49 0 17.374;
27 16 0 31.061; 28 16 0 27.061; 29 16 0 24.061; 30 19 0 31.061; 31 19 0 27.061;
32 19 0 24.061; 33 23 0 31.061; 34 23 0 27.061; 35 23 0 24.061; 36 26 0 31.061;
37 26 0 27.061; 38 26 0 24.061; 39 30 0 31.061; 40 30 0 27.061; 41 30 0 24.061;
42 33 0 31.061; 43 33 0 27.061; 44 33 0 24.061; 45 3.9571 0 14.707;
46 5.2912 0 12.0203; 47 4 0 17.374; 48 10.666 0 14.687; 49 9.332 0 17.374;
50 4 0 20.061; 51 12 0 0; 52 12 0 4; 53 12 0 8; 54 12 0 12; 55 16 0 4;
56 19 0 4; 57 16 0 0; 58 19 0 0; 59 23 0 0; 60 23 0 4; 61 16 0 8; 62 16 0 12;
63 19 0 8; 64 23 0 8; 65 26 0 4; 66 26 0 0; 67 37 0 0; 68 37 0 4; 69 30 0 0;
70 33 0 0; 71 30 0 4; 72 33 0 4; 73 26 0 8; 74 30 0 8; 75 33 0 8; 76 37 0 8;
77 12 0 17.374; 78 0 0 20.061; 79 0 0 24.061; 80 0 0 27.061; 81 0 0 31.061;
82 4 0 31.061; 83 4 0 27.061; 84 4 0 24.061; 85 8 0 20.061; 86 8 0 24.061;
87 8 0 27.061; 88 8 0 31.061; 89 12 0 31.061; 90 12 0 27.061; 91 12 0 24.061;
92 12 0 20.061; 93 16 0 20.061; 94 19 0 20.061; 95 23 0 20.061; 96 26 0 20.061;
97 30 0 20.061; 98 33 0 20.061; 99 37 0 20.061; 100 41 0 20.061;
101 16 0 14.687; 102 16 0 17.374; 103 19 0 12; 104 23 0 12; 105 19 0 14.687;
106 23 0 14.687; 107 19 0 17.374; 108 23 0 17.374; 109 26 0 17.374;
# ... 632 like lines cut
MEMBER INCIDENCES
1 1 2; 2 2 3; 3 3 4; 4 4 5; 5 5 6; 6 7 8; 7 8 9; 8 10 11; 9 11 12; 10 12 13;
11 14 15; 12 15 16; 13 16 17; 14 18 19; 15 19 20; 16 21 22; 17 22 23; 18 23 24;
19 24 25; 20 25 26; 21 27 28; 22 28 29; 23 30 31; 24 31 32; 25 33 34; 26 34 35;
27 36 37; 28 37 38; 29 39 40; 30 40 41; 31 42 43; 32 43 44; 33 27 30; 34 30 33;
35 28 31; 36 31 34; 37 29 32; 38 32 35; 39 36 39; 40 39 42; 41 37 40; 42 40 43;
43 38 41; 44 41 44; 45 45 5; 46 4 46; 47 6 47; 48 47 45; 49 46 48; 50 45 46;
51 45 49; 52 47 50; 53 51 52; 54 52 53; 55 53 54; 56 1 7; 57 7 13; 58 13 51;
59 2 8; 60 8 12; 61 12 52; 62 52 55; 63 55 56; 64 51 57; 65 57 58; 66 58 56;
67 57 55; 68 59 58; 69 59 60; 70 60 56; 71 55 61; 72 61 62; 73 56 63; 74 63 64;
75 64 60; 76 60 65; 77 65 66; 78 66 59; 79 67 68; 80 66 69; 81 69 70; 82 70 67;
83 65 71; 84 71 72; 85 72 68; 86 65 73; 87 73 64; 88 3 9; 89 9 11; 90 11 53;
91 53 61; 92 61 63; 93 69 71; 94 71 74; 95 70 72; 96 72 75; 97 68 76; 98 73 74;
99 74 75; 100 75 76; 101 67 17; 102 17 20; 103 20 21; 104 68 16; 105 16 19;
106 19 22; 107 46 10; 108 10 54; 109 9 45; 110 48 49; 111 77 49; 112 49 47;
113 6 78; 114 78 79; 115 79 80; 116 80 81; 117 81 82; 118 82 83; 119 83 84;
120 50 84; 121 85 86; 122 86 87; 123 87 88; 124 89 90; 125 90 91; 126 91 92;
127 92 77; 128 78 50; 129 50 85; 130 85 92; 131 79 84; 132 84 86; 133 86 91;
134 80 83; 135 83 87; 136 87 90; 137 82 88; 138 88 89; 139 89 27; 140 90 28;
141 92 93; 142 93 94; 143 94 95; 144 95 96; 145 96 97; 146 97 98; 147 98 99;
148 99 100; 149 91 29; 150 34 37; 151 38 35; 152 36 33; 153 54 77; 154 62 101;
# ... 1214 like lines cut
DEFINE MATERIAL START
ISOTROPIC CONCRETE
E 2.17185e+007
POISSON 0.17
DENSITY 23.5616
ALPHA 1e-005
DAMP 0.05
TYPE CONCRETE
STRENGTH FCU 27579
END DEFINE MATERIAL
MEMBER PROPERTY AMERICAN
1 TO 254 393 TO 646 785 TO 1038 1131 TO 1284 1377 TO 1530 1623 TO 1776 1869 -
1870 TO 2022 2115 TO 2268 2361 TO 2514 2607 TO 2760 2853 TO 3006 3099 TO 3252 -
3345 TO 3498 3591 TO 3744 3837 TO 3990 4083 TO 4236 4329 TO 4482 -
4575 TO 4728 4821 TO 4974 5067 TO 5220 5313 TO 5466 5559 TO 5712 -
5805 TO 5958 6051 TO 6204 6359 TO 6374 PRIS YD 0.45 ZD 0.25
255 TO 392 647 TO 784 1041 TO 1130 1285 TO 1376 1531 TO 1622 1777 TO 1868 -
2023 TO 2114 2269 TO 2360 2515 TO 2606 2761 TO 2852 3007 TO 3098 -
6205 TO 6342 6375 6376 PRIS YD 1.2 ZD 1.2
3253 TO 3344 3499 TO 3590 3745 TO 3836 3991 TO 4082 4237 TO 4328 4483 TO 4574 -
4729 TO 4820 4975 TO 5066 5221 TO 5312 5467 TO 5558 5713 TO 5804 -
5959 TO 6050 6343 TO 6358 PRIS YD 0.7 ZD 0.7
CONSTANTS
MATERIAL CONCRETE ALL
SUPPORTS
2347 TO 2484 FIXED
DEFINE 1893 LOAD
ZONE 0.24 RF 5 I 1 SS 2 ST 1 DM 0.05
SELFWEIGHT 1 
MEMBER WEIGHT
1 TO 1038 1041 TO 6050 6375 6376 UNI 12.1
FLOOR WEIGHT
YRANGE 3 30 FLOAD 4.75
DEFINE WIND LOAD
TYPE 1 WIND 1
<! STAAD PRO GENERATED DATA DO NOT MODIFY !!!
ASCE-7-2010:PARAMS 85.000 MPH 0 1 1 0 0.000 FT 0.000 FT 0.000 FT 1 -
1 40.000 FT 30.000 FT 25.000 FT 2.000 0.010 0 -
0 0 0 0 0.761 1.000 1.000 0.850 0 -
0 0 0 0.866 0.800 -0.550
!> END GENERATED DATA BLOCK
INT 0.614555 0.614555 0.625063 0.634749 0.643753 0.652179 0.66011 0.667609 -
 0.67473 0.681515 0.688 0.694215 0.700185 0.705932 0.711476 HEIG  0  4.572 -
 5.15815  5.74431  6.33046  6.91662  7.50277  8.08892  8.67508  9.26123 -
 9.84739  10.4335  11.0197  11.6059  12.192
EXP 0.8 JOINT 1 TO 2500
LOAD 1 LOADTYPE Seismic  TITLE EQX
LOAD 2 LOADTYPE Seismic  TITLE EQ-X
LOAD 3 LOADTYPE Seismic  TITLE EQZ
LOAD 4 LOADTYPE Seismic  TITLE EQ-Z
LOAD 5 LOADTYPE Dead  TITLE DL
FLOOR LOAD
YRANGE -5.4 62 FLOAD -1 GY
YRANGE 65.1 65.1 FLOAD -0.5 GY
YRANGE -5.4 68.2 FLOAD -3.75 GY
YRANGE 68.2 68.2 FLOAD -12.2625 GY
SELFWEIGHT Y -1 LIST 1 TO 1038 1041 TO 6374
MEMBER LOAD
49 TO 51 53 TO 55 64 65 68 69 75 77 79 TO 82 86 97 110 114 TO 117 124 TO 126 -
128 TO 130 137 138 148 159 TO 161 169 TO 171 187 TO 189 191 TO 194 -
199 TO 201 204 218 223 TO 227 241 243 245 253 254 425 426 431 432 -
441 TO 443 502 506 TO 509 516 TO 518 520 TO 522 529 TO 531 533 TO 535 537 -
538 TO 540 551 TO 553 561 TO 563 579 TO 586 591 TO 593 596 610 615 TO 619 -
645 646 785 TO 789 800 TO 804 817 818 823 824 833 TO 835 840 TO 842 848 849 -
852 862 864 TO 866 885 TO 887 894 897 TO 901 921 TO 923 936 971 TO 974 983 -
984 TO 985 1002 1007 TO 1009 1020 1131 TO 1136 1139 1140 1143 1144 -
1150 TO 1155 1159 1166 1170 1172 TO 1175 1182 TO 1184 1186 TO 1188 1195 1196 -
1204 1211 TO 1213 1221 TO 1223 1236 TO 1242 1247 TO 1249 1252 1261 -
1264 TO 1268 1275 1277 1279 1283 1284 1377 TO 1382 1385 1386 1389 1390 1396 -
1397 TO 1401 1405 1412 1416 1418 TO 1421 1428 TO 1430 1432 TO 1434 1441 1442 -
1450 1457 TO 1459 1467 TO 1469 1482 TO 1488 1493 TO 1495 1498 1507 -
1510 TO 1514 1521 1523 1525 1529 1530 1623 TO 1628 1631 1632 1635 1636 1642 -
1643 TO 1647 1651 1658 1662 1664 TO 1667 1674 TO 1676 1678 TO 1680 1687 1688 -
1696 1703 TO 1705 1713 TO 1715 1728 TO 1734 1739 TO 1741 1744 1753 -
1756 UNI GY -14.84
1757 TO 1760 1767 1769 1771 1775 1776 1869 TO 1874 1877 1878 1881 1882 1888 -
1889 TO 1893 1897 1904 1908 1910 TO 1913 1920 TO 1922 1924 TO 1926 1933 1934 -
1942 1949 TO 1951 1959 TO 1961 1974 TO 1980 1985 TO 1987 1990 1999 -
2002 TO 2006 2013 2015 2017 2021 2022 2115 TO 2120 2123 2124 2127 2128 2134 -
2135 TO 2139 2143 2150 2154 2156 TO 2159 2166 TO 2168 2170 TO 2172 2179 2180 -
2188 2195 TO 2197 2205 TO 2207 2220 TO 2226 2231 TO 2233 2236 2245 -
2248 TO 2252 2259 2261 2263 2267 2268 2361 TO 2366 2369 2370 2373 2374 2380 -
2381 TO 2385 2389 2396 2400 2402 TO 2405 2412 TO 2414 2416 TO 2418 2425 2426 -
2434 2441 TO 2443 2451 TO 2453 2466 TO 2472 2477 TO 2479 2482 2491 -
2494 TO 2498 2505 2507 2509 2513 2514 2607 TO 2612 2615 2616 2619 2620 2626 -
2627 TO 2631 2635 2642 2646 2648 TO 2651 2658 TO 2660 2662 TO 2664 2671 2672 -
2680 2687 TO 2689 2697 TO 2699 2712 TO 2718 2723 TO 2725 2728 2737 -
2740 TO 2744 2751 2753 2755 2759 2760 2853 TO 2858 2861 2862 2865 2866 2872 -
2873 TO 2877 2881 2888 2892 2894 TO 2897 2904 TO 2906 2908 TO 2910 2917 2918 -
2926 2933 TO 2935 2943 TO 2945 2958 TO 2964 2969 TO 2971 2974 2983 -
2986 TO 2990 2997 2999 3001 3005 3006 3099 TO 3104 3107 3108 3111 3112 3118 -
3119 TO 3123 3127 3134 3138 3140 TO 3143 3150 TO 3152 3154 TO 3156 3163 3164 -
3172 3179 TO 3181 3189 TO 3191 3204 TO 3210 3215 TO 3217 UNI GY -14.84
3220 3229 3232 TO 3236 3243 3245 3247 3251 3252 3345 TO 3350 3353 3354 3357 -
3358 3364 TO 3369 3373 3380 3384 3386 TO 3389 3396 TO 3398 3400 TO 3402 3409 -
3410 3418 3425 TO 3427 3435 TO 3437 3450 TO 3456 3461 TO 3463 3466 3475 3478 -
3479 TO 3482 3489 3491 3493 3497 3498 3591 TO 3596 3599 3600 3603 3604 3610 -
3611 TO 3615 3619 3626 3630 3632 TO 3635 3642 TO 3644 3646 TO 3648 3655 3656 -
3664 3671 TO 3673 3681 TO 3683 3696 TO 3702 3707 TO 3709 3712 3721 -
3724 TO 3728 3735 3737 3739 3743 3744 3837 TO 3842 3845 3846 3849 3850 3856 -
3857 TO 3861 3865 3872 3876 3878 TO 3881 3888 TO 3890 3892 TO 3894 3901 3902 -
3910 3917 TO 3919 3927 TO 3929 3942 TO 3948 3953 TO 3955 3958 3967 -
3970 TO 3974 3981 3983 3985 3989 3990 4083 TO 4088 4091 4092 4095 4096 4102 -
4103 TO 4107 4111 4118 4122 4124 TO 4127 4134 TO 4136 4138 TO 4140 4147 4148 -
4156 4163 TO 4165 4173 TO 4175 4188 TO 4194 4199 TO 4201 4204 4213 -
4216 TO 4220 4227 4229 4231 4235 4236 4329 TO 4334 4337 4338 4341 4342 4348 -
4349 TO 4353 4357 4364 4368 4370 TO 4373 4380 TO 4382 4384 TO 4386 4393 4394 -
4402 4409 TO 4411 4419 TO 4421 4434 TO 4440 4445 TO 4447 4450 4459 -
4462 TO 4466 4473 4475 4477 4481 4482 4575 TO 4580 4583 4584 4587 4588 4594 -
4595 TO 4599 4603 4610 4614 4616 TO 4619 4626 TO 4628 4630 TO 4632 4639 4640 -
4648 4655 TO 4657 4665 TO 4667 4680 TO 4686 4691 UNI GY -14.84
4692 4693 4696 4705 4708 TO 4712 4719 4721 4723 4727 4728 4821 TO 4826 4829 -
4830 4833 4834 4840 TO 4845 4849 4856 4860 4862 TO 4865 4872 TO 4874 4876 -
4877 TO 4878 4885 4886 4894 4901 TO 4903 4911 TO 4913 4926 TO 4932 -
4937 TO 4939 4942 4951 4954 TO 4958 4965 4967 4969 4973 4974 5067 TO 5072 -
5075 5076 5079 5080 5086 TO 5091 5095 5102 5106 5108 TO 5111 5118 TO 5120 -
5122 TO 5124 5131 5132 5140 5147 TO 5149 5157 TO 5159 5172 TO 5178 -
5183 TO 5185 5188 5197 5200 TO 5204 5211 5213 5215 5219 5220 5313 TO 5318 -
5321 5322 5325 5326 5332 TO 5337 5341 5348 5352 5354 TO 5357 5364 TO 5366 -
5368 TO 5370 5377 5378 5386 5393 TO 5395 5403 TO 5405 5418 TO 5424 -
5429 TO 5431 5434 5443 5446 TO 5450 5457 5459 5461 5465 5466 5559 TO 5564 -
5567 5568 5571 5572 5578 TO 5583 5587 5594 5598 5600 TO 5603 5610 TO 5612 -
5614 TO 5616 5623 5624 5632 5639 TO 5641 5649 TO 5651 5664 TO 5670 -
5675 TO 5677 5680 5689 5692 TO 5696 5703 5705 5707 5711 5712 5805 TO 5810 -
5813 5814 5817 5818 5824 TO 5829 5833 5840 5844 5846 TO 5849 5856 TO 5858 -
5860 TO 5862 5869 5870 5878 5885 TO 5887 5895 TO 5897 5910 TO 5916 -
5921 TO 5923 5926 5935 5938 TO 5942 5949 5951 5953 5957 5958 6051 TO 6053 -
6090 6181 6184 TO 6186 UNI GY -14.84
62 63 66 67 70 TO 74 83 TO 85 91 TO 96 98 TO 100 118 TO 123 131 TO 136 180 -
181 TO 182 184 TO 186 195 TO 198 202 203 242 244 246 1137 1138 1141 1142 1145 -
1146 TO 1149 1156 TO 1158 1160 TO 1165 1167 TO 1169 1176 TO 1181 1189 TO 1194 -
1230 TO 1235 1243 TO 1246 1250 1251 1276 1278 1280 1383 1384 1387 1388 1391 -
1392 TO 1395 1402 TO 1404 1406 TO 1411 1413 TO 1415 1422 TO 1427 1435 TO 1440 -
1476 TO 1481 1489 TO 1492 1496 1497 1522 1524 1526 1629 1630 1633 1634 1637 -
1638 TO 1641 1648 TO 1650 1652 TO 1657 1659 TO 1661 1668 TO 1673 1681 TO 1686 -
1722 TO 1727 1735 TO 1738 1742 1743 1768 1770 1772 1875 1876 1879 1880 1883 -
1884 TO 1887 1894 TO 1896 1898 TO 1903 1905 TO 1907 1914 TO 1919 1927 TO 1932 -
1968 TO 1973 1981 TO 1984 1988 1989 2014 2016 2018 2121 2122 2125 2126 2129 -
2130 TO 2133 2140 TO 2142 2144 TO 2149 2151 TO 2153 2160 TO 2165 2173 TO 2178 -
2214 TO 2219 2227 TO 2230 2234 2235 2260 2262 2264 2367 2368 2371 2372 2375 -
2376 TO 2379 2386 TO 2388 2390 TO 2395 2397 TO 2399 2406 TO 2411 2419 TO 2424 -
2460 TO 2465 2473 TO 2476 2480 2481 2506 2508 2510 2613 2614 2617 2618 2621 -
2622 TO 2625 2632 TO 2634 2636 TO 2641 2643 TO 2645 2652 TO 2657 2665 TO 2670 -
2706 TO 2711 2719 TO 2722 2726 2727 2752 2754 2756 2859 2860 2863 2864 2867 -
2868 TO 2871 2878 TO 2880 2882 TO 2887 UNI GY -10.6
2889 TO 2891 2898 TO 2903 2911 TO 2916 2952 TO 2957 2965 TO 2968 2972 2973 -
2998 3000 3002 3105 3106 3109 3110 3113 TO 3117 3124 TO 3126 3128 TO 3133 -
3135 TO 3137 3144 TO 3149 3157 TO 3162 3198 TO 3203 3211 TO 3214 3218 3219 -
3244 3246 3248 3351 3352 3355 3356 3359 TO 3363 3370 TO 3372 3374 TO 3379 -
3381 TO 3383 3390 TO 3395 3403 TO 3408 3444 TO 3449 3457 TO 3460 3464 3465 -
3490 3492 3494 3597 3598 3601 3602 3605 TO 3609 3616 TO 3618 3620 TO 3625 -
3627 TO 3629 3636 TO 3641 3649 TO 3654 3690 TO 3695 3703 TO 3706 3710 3711 -
3736 3738 3740 3843 3844 3847 3848 3851 TO 3855 3862 TO 3864 3866 TO 3871 -
3873 TO 3875 3882 TO 3887 3895 TO 3900 3936 TO 3941 3949 TO 3952 3956 3957 -
3982 3984 3986 4089 4090 4093 4094 4097 TO 4101 4108 TO 4110 4112 TO 4117 -
4119 TO 4121 4128 TO 4133 4141 TO 4146 4182 TO 4187 4195 TO 4198 4202 4203 -
4228 4230 4232 4335 4336 4339 4340 4343 TO 4347 4354 TO 4356 4358 TO 4363 -
4365 TO 4367 4374 TO 4379 4387 TO 4392 4428 TO 4433 4441 TO 4444 4448 4449 -
4474 4476 4478 4581 4582 4585 4586 4589 TO 4593 4600 TO 4602 4604 TO 4609 -
4611 TO 4613 4620 TO 4625 4633 TO 4638 4674 TO 4679 4687 TO 4690 4694 4695 -
4720 4722 4724 4827 4828 4831 4832 4835 TO 4839 4846 TO 4848 4850 TO 4855 -
4857 TO 4859 4866 TO 4871 4879 TO 4884 4920 TO 4925 4933 TO 4936 -
4940  UNI GY -10.6
4941 4966 4968 4970 5073 5074 5077 5078 5081 TO 5085 5092 TO 5094 -
5096 TO 5101 5103 TO 5105 5112 TO 5117 5125 TO 5130 5166 TO 5171 -
5179 TO 5182 5186 5187 5212 5214 5216 5319 5320 5323 5324 5327 TO 5331 5338 -
5339 TO 5340 5342 TO 5347 5349 TO 5351 5358 TO 5363 5371 TO 5376 5412 TO 5417 -
5425 TO 5428 5432 5433 5458 5460 5462 5565 5566 5569 5570 5573 TO 5577 5584 -
5585 TO 5586 5588 TO 5593 5595 TO 5597 5604 TO 5609 5617 TO 5622 5658 TO 5663 -
5671 TO 5674 5678 5679 5704 5706 5708 5811 5812 5815 5816 5819 TO 5823 5830 -
5831 TO 5832 5834 TO 5839 5841 5843 5850 TO 5855 5863 TO 5868 5904 TO 5909 -
5917 TO 5920 5924 5925 5950 5952 5954 UNI GY -10.6
141 142 144 146 147 168 1197 1198 1200 1202 1203 1220 1443 1444 1446 1448 -
1449 1466 1689 1690 1692 1694 1695 1712 1935 1936 1938 1940 1941 1958 2181 -
2182 2184 2186 2187 2204 2427 2428 2430 2432 2433 2450 2673 2674 2676 2678 -
2679 2696 2919 2920 2922 2924 2925 2942 3165 3166 3168 3170 3171 3188 3411 -
3412 3414 3416 3417 3434 3657 3658 3660 3662 3663 3680 3903 3904 3906 3908 -
3909 3926 4149 4150 4152 4154 4155 4172 4395 4396 4398 4400 4401 4418 4641 -
4642 4644 4646 4647 4664 4887 4888 4890 4892 4893 4910 5133 5134 5136 5138 -
5139 5156 5379 5380 5382 5384 5385 5402 5625 5626 5628 5630 5631 5648 5871 -
5872 5874 5876 5877 5894 6054 TO 6056 6059 6060 6063 6064 6070 TO 6075 6079 -
6086 6092 TO 6095 6102 TO 6104 6106 6107 6115 TO 6123 6140 6156 TO 6162 6167 -
6168 TO 6169 6172 6187 6188 6195 6197 6199 6203 6204 UNI GY -5.096
50 110 218 225 1132 1170 1261 1266 1378 1416 1507 1512 1624 1662 1753 1758 -
1870 1908 1999 2004 2116 2154 2245 2250 2362 2400 2491 2496 2608 2646 2737 -
2742 2854 2892 2983 2988 3100 3138 3229 3234 3346 3384 3475 3480 3592 3630 -
3721 3726 3838 3876 3967 3972 4084 4122 4213 4218 4330 4368 4459 4464 4576 -
4614 4705 4710 4822 4860 4951 4956 5068 5106 5197 5202 5314 5352 5443 5448 -
5560 5598 5689 5694 5806 5844 5935 5940 UNI GY -10.3125
LOAD 6 LOADTYPE Live REDUCIBLE TITLE LL
FLOOR LOAD
YRANGE 0 65.1 FLOAD -2 GY
YRANGE -5.4 -2.7 FLOAD -3 GY
LOAD 7 LOADTYPE Wind  TITLE WX
LOAD 8 LOADTYPE Wind  TITLE W-X
LOAD 9 LOADTYPE Wind  TITLE WZ
LOAD 10 LOADTYPE Wind  TITLE W-Z
LOAD COMB 11 COMBINATION LOAD CASE 11
5 1.5 6 1.5 
LOAD COMB 12 COMBINATION LOAD CASE 12
1 1.5 5 1.5 
LOAD COMB 13 COMBINATION LOAD CASE 13
3 1.5 5 1.5 
LOAD COMB 14 COMBINATION LOAD CASE 14
2 1.5 5 1.5 
LOAD COMB 15 COMBINATION LOAD CASE 15
4 1.5 5 1.5 
LOAD COMB 16 COMBINATION LOAD CASE 16
1 1.2 5 1.2 6 1.2 
LOAD COMB 17 COMBINATION LOAD CASE 17
2 1.2 5 1.2 6 1.2 
LOAD COMB 18 COMBINATION LOAD CASE 18
3 1.2 5 1.2 6 1.2 
LOAD COMB 19 COMBINATION LOAD CASE 19
4 1.2 5 1.2 6 1.2 
LOAD COMB 20 COMBINATION LOAD CASE 20
1 1.5 5 0.9 
LOAD COMB 21 COMBINATION LOAD CASE 21
5 0.9 2 1.5 
LOAD COMB 22 COMBINATION LOAD CASE 22
3 1.5 5 0.9 
LOAD COMB 23 COMBINATION LOAD CASE 23
5 0.9 4 1.5 
LOAD COMB 24 COMBINATION LOAD CASE 24
1 1.5 5 1.5 3 0.3 
LOAD COMB 25 COMBINATION LOAD CASE 25
3 0.3 2 1.5 5 1.5 
LOAD COMB 26 COMBINATION LOAD CASE 26
1 1.5 5 1.5 4 0.3 
LOAD COMB 27 COMBINATION LOAD CASE 27
4 0.3 2 1.5 5 1.5 
LOAD COMB 28 COMBINATION LOAD CASE 28
3 1.5 5 1.5 1 0.3 
LOAD COMB 29 COMBINATION LOAD CASE 29
1 0.3 4 1.5 5 1.5 
LOAD COMB 30 COMBINATION LOAD CASE 30
3 1.5 5 1.5 2 0.3 
# ... 42 like lines cut
FINISH
